powerfulcases/cases/matpower/case118zh/case118zh.raw
0, 10, 33, 0, 0, 60  / 28-Jan-2026 21:50:17 - MATPOWER 8.1


     1, 'BUS 1       ',        11, 3,    1,    1, 1,           1,           0,    1,    1,    1,    1
     2, 'BUS 2       ',        11, 1,    1,    1, 1,           1,           0,  1.1,  0.9,  1.1,  0.9
     3, 'BUS 3       ',        11, 1,    1,    1, 1,           1,           0,  1.1,  0.9,  1.1,  0.9
     4, 'BUS 4       ',        11, 1,    1,    1, 1,           1,           0,  1.1,  0.9,  1.1,  0.9
     5, 'BUS 5       ',        11, 1,    1,    1, 1,           1,           0,  1.1,  0.9,  1.1,  0.9
     6, 'BUS 6       ',        11, 1,    1,    1, 1,           1,           0,  1.1,  0.9,  1.1,  0.9
     7, 'BUS 7       ',        11, 1,    1,    1, 1,           1,           0,  1.1,  0.9,  1.1,  0.9
     8, 'BUS 8       ',        11, 1,    1,    1, 1,           1,           0,  1.1,  0.9,  1.1,  0.9
     9, 'BUS 9       ',        11, 1,    1,    1, 1,           1,           0,  1.1,  0.9,  1.1,  0.9
    10, 'BUS 10      ',        11, 1,    1,    1, 1,           1,           0,  1.1,  0.9,  1.1,  0.9
    11, 'BUS 11      ',        11, 1,    1,    1, 1,           1,           0,  1.1,  0.9,  1.1,  0.9
    12, 'BUS 12      ',        11, 1,    1,    1, 1,           1,           0,  1.1,  0.9,  1.1,  0.9
    13, 'BUS 13      ',        11, 1,    1,    1, 1,           1,           0,  1.1,  0.9,  1.1,  0.9
    14, 'BUS 14      ',        11, 1,    1,    1, 1,           1,           0,  1.1,  0.9,  1.1,  0.9
    15, 'BUS 15      ',        11, 1,    1,    1, 1,           1,           0,  1.1,  0.9,  1.1,  0.9
    16, 'BUS 16      ',        11, 1,    1,    1, 1,           1,           0,  1.1,  0.9,  1.1,  0.9
    17, 'BUS 17      ',        11, 1,    1,    1, 1,           1,           0,  1.1,  0.9,  1.1,  0.9
    18, 'BUS 18      ',        11, 1,    1,    1, 1,           1,           0,  1.1,  0.9,  1.1,  0.9
    19, 'BUS 19      ',        11, 1,    1,    1, 1,           1,           0,  1.1,  0.9,  1.1,  0.9
    20, 'BUS 20      ',        11, 1,    1,    1, 1,           1,           0,  1.1,  0.9,  1.1,  0.9
    21, 'BUS 21      ',        11, 1,    1,    1, 1,           1,           0,  1.1,  0.9,  1.1,  0.9
    22, 'BUS 22      ',        11, 1,    1,    1, 1,           1,           0,  1.1,  0.9,  1.1,  0.9
    23, 'BUS 23      ',        11, 1,    1,    1, 1,           1,           0,  1.1,  0.9,  1.1,  0.9
    24, 'BUS 24      ',        11, 1,    1,    1, 1,           1,           0,  1.1,  0.9,  1.1,  0.9
    25, 'BUS 25      ',        11, 1,    1,    1, 1,           1,           0,  1.1,  0.9,  1.1,  0.9
    26, 'BUS 26      ',        11, 1,    1,    1, 1,           1,           0,  1.1,  0.9,  1.1,  0.9
    27, 'BUS 27      ',        11, 1,    1,    1, 1,           1,           0,  1.1,  0.9,  1.1,  0.9
    28, 'BUS 28      ',        11, 1,    1,    1, 1,           1,           0,  1.1,  0.9,  1.1,  0.9
    29, 'BUS 29      ',        11, 1,    1,    1, 1,           1,           0,  1.1,  0.9,  1.1,  0.9
    30, 'BUS 30      ',        11, 1,    1,    1, 1,           1,           0,  1.1,  0.9,  1.1,  0.9
    31, 'BUS 31      ',        11, 1,    1,    1, 1,           1,           0,  1.1,  0.9,  1.1,  0.9
    32, 'BUS 32      ',        11, 1,    1,    1, 1,           1,           0,  1.1,  0.9,  1.1,  0.9
    33, 'BUS 33      ',        11, 1,    1,    1, 1,           1,           0,  1.1,  0.9,  1.1,  0.9
    34, 'BUS 34      ',        11, 1,    1,    1, 1,           1,           0,  1.1,  0.9,  1.1,  0.9
    35, 'BUS 35      ',        11, 1,    1,    1, 1,           1,           0,  1.1,  0.9,  1.1,  0.9
    36, 'BUS 36      ',        11, 1,    1,    1, 1,           1,           0,  1.1,  0.9,  1.1,  0.9
    37, 'BUS 37      ',        11, 1,    1,    1, 1,           1,           0,  1.1,  0.9,  1.1,  0.9
    38, 'BUS 38      ',        11, 1,    1,    1, 1,           1,           0,  1.1,  0.9,  1.1,  0.9
    39, 'BUS 39      ',        11, 1,    1,    1, 1,           1,           0,  1.1,  0.9,  1.1,  0.9
    40, 'BUS 40      ',        11, 1,    1,    1, 1,           1,           0,  1.1,  0.9,  1.1,  0.9
    41, 'BUS 41      ',        11, 1,    1,    1, 1,           1,           0,  1.1,  0.9,  1.1,  0.9
    42, 'BUS 42      ',        11, 1,    1,    1, 1,           1,           0,  1.1,  0.9,  1.1,  0.9
    43, 'BUS 43      ',        11, 1,    1,    1, 1,           1,           0,  1.1,  0.9,  1.1,  0.9
    44, 'BUS 44      ',        11, 1,    1,    1, 1,           1,           0,  1.1,  0.9,  1.1,  0.9
    45, 'BUS 45      ',        11, 1,    1,    1, 1,           1,           0,  1.1,  0.9,  1.1,  0.9
    46, 'BUS 46      ',        11, 1,    1,    1, 1,           1,           0,  1.1,  0.9,  1.1,  0.9
    47, 'BUS 47      ',        11, 1,    1,    1, 1,           1,           0,  1.1,  0.9,  1.1,  0.9
    48, 'BUS 48      ',        11, 1,    1,    1, 1,           1,           0,  1.1,  0.9,  1.1,  0.9
    49, 'BUS 49      ',        11, 1,    1,    1, 1,           1,           0,  1.1,  0.9,  1.1,  0.9
    50, 'BUS 50      ',        11, 1,    1,    1, 1,           1,           0,  1.1,  0.9,  1.1,  0.9
    51, 'BUS 51      ',        11, 1,    1,    1, 1,           1,           0,  1.1,  0.9,  1.1,  0.9
    52, 'BUS 52      ',        11, 1,    1,    1, 1,           1,           0,  1.1,  0.9,  1.1,  0.9
    53, 'BUS 53      ',        11, 1,    1,    1, 1,           1,           0,  1.1,  0.9,  1.1,  0.9
    54, 'BUS 54      ',        11, 1,    1,    1, 1,           1,           0,  1.1,  0.9,  1.1,  0.9
    55, 'BUS 55      ',        11, 1,    1,    1, 1,           1,           0,  1.1,  0.9,  1.1,  0.9
    56, 'BUS 56      ',        11, 1,    1,    1, 1,           1,           0,  1.1,  0.9,  1.1,  0.9
    57, 'BUS 57      ',        11, 1,    1,    1, 1,           1,           0,  1.1,  0.9,  1.1,  0.9
    58, 'BUS 58      ',        11, 1,    1,    1, 1,           1,           0,  1.1,  0.9,  1.1,  0.9
    59, 'BUS 59      ',        11, 1,    1,    1, 1,           1,           0,  1.1,  0.9,  1.1,  0.9
    60, 'BUS 60      ',        11, 1,    1,    1, 1,           1,           0,  1.1,  0.9,  1.1,  0.9
    61, 'BUS 61      ',        11, 1,    1,    1, 1,           1,           0,  1.1,  0.9,  1.1,  0.9
    62, 'BUS 62      ',        11, 1,    1,    1, 1,           1,           0,  1.1,  0.9,  1.1,  0.9
    63, 'BUS 63      ',        11, 1,    1,    1, 1,           1,           0,  1.1,  0.9,  1.1,  0.9
    64, 'BUS 64      ',        11, 1,    1,    1, 1,           1,           0,  1.1,  0.9,  1.1,  0.9
    65, 'BUS 65      ',        11, 1,    1,    1, 1,           1,           0,  1.1,  0.9,  1.1,  0.9
    66, 'BUS 66      ',        11, 1,    1,    1, 1,           1,           0,  1.1,  0.9,  1.1,  0.9
    67, 'BUS 67      ',        11, 1,    1,    1, 1,           1,           0,  1.1,  0.9,  1.1,  0.9
    68, 'BUS 68      ',        11, 1,    1,    1, 1,           1,           0,  1.1,  0.9,  1.1,  0.9
    69, 'BUS 69      ',        11, 1,    1,    1, 1,           1,           0,  1.1,  0.9,  1.1,  0.9
    70, 'BUS 70      ',        11, 1,    1,    1, 1,           1,           0,  1.1,  0.9,  1.1,  0.9
    71, 'BUS 71      ',        11, 1,    1,    1, 1,           1,           0,  1.1,  0.9,  1.1,  0.9
    72, 'BUS 72      ',        11, 1,    1,    1, 1,           1,           0,  1.1,  0.9,  1.1,  0.9
    73, 'BUS 73      ',        11, 1,    1,    1, 1,           1,           0,  1.1,  0.9,  1.1,  0.9
    74, 'BUS 74      ',        11, 1,    1,    1, 1,           1,           0,  1.1,  0.9,  1.1,  0.9
    75, 'BUS 75      ',        11, 1,    1,    1, 1,           1,           0,  1.1,  0.9,  1.1,  0.9
    76, 'BUS 76      ',        11, 1,    1,    1, 1,           1,           0,  1.1,  0.9,  1.1,  0.9
    77, 'BUS 77      ',        11, 1,    1,    1, 1,           1,           0,  1.1,  0.9,  1.1,  0.9
    78, 'BUS 78      ',        11, 1,    1,    1, 1,           1,           0,  1.1,  0.9,  1.1,  0.9
    79, 'BUS 79      ',        11, 1,    1,    1, 1,           1,           0,  1.1,  0.9,  1.1,  0.9
    80, 'BUS 80      ',        11, 1,    1,    1, 1,           1,           0,  1.1,  0.9,  1.1,  0.9
    81, 'BUS 81      ',        11, 1,    1,    1, 1,           1,           0,  1.1,  0.9,  1.1,  0.9
    82, 'BUS 82      ',        11, 1,    1,    1, 1,           1,           0,  1.1,  0.9,  1.1,  0.9
    83, 'BUS 83      ',        11, 1,    1,    1, 1,           1,           0,  1.1,  0.9,  1.1,  0.9
    84, 'BUS 84      ',        11, 1,    1,    1, 1,           1,           0,  1.1,  0.9,  1.1,  0.9
    85, 'BUS 85      ',        11, 1,    1,    1, 1,           1,           0,  1.1,  0.9,  1.1,  0.9
    86, 'BUS 86      ',        11, 1,    1,    1, 1,           1,           0,  1.1,  0.9,  1.1,  0.9
    87, 'BUS 87      ',        11, 1,    1,    1, 1,           1,           0,  1.1,  0.9,  1.1,  0.9
    88, 'BUS 88      ',        11, 1,    1,    1, 1,           1,           0,  1.1,  0.9,  1.1,  0.9
    89, 'BUS 89      ',        11, 1,    1,    1, 1,           1,           0,  1.1,  0.9,  1.1,  0.9
    90, 'BUS 90      ',        11, 1,    1,    1, 1,           1,           0,  1.1,  0.9,  1.1,  0.9
    91, 'BUS 91      ',        11, 1,    1,    1, 1,           1,           0,  1.1,  0.9,  1.1,  0.9
    92, 'BUS 92      ',        11, 1,    1,    1, 1,           1,           0,  1.1,  0.9,  1.1,  0.9
    93, 'BUS 93      ',        11, 1,    1,    1, 1,           1,           0,  1.1,  0.9,  1.1,  0.9
    94, 'BUS 94      ',        11, 1,    1,    1, 1,           1,           0,  1.1,  0.9,  1.1,  0.9
    95, 'BUS 95      ',        11, 1,    1,    1, 1,           1,           0,  1.1,  0.9,  1.1,  0.9
    96, 'BUS 96      ',        11, 1,    1,    1, 1,           1,           0,  1.1,  0.9,  1.1,  0.9
    97, 'BUS 97      ',        11, 1,    1,    1, 1,           1,           0,  1.1,  0.9,  1.1,  0.9
    98, 'BUS 98      ',        11, 1,    1,    1, 1,           1,           0,  1.1,  0.9,  1.1,  0.9
    99, 'BUS 99      ',        11, 1,    1,    1, 1,           1,           0,  1.1,  0.9,  1.1,  0.9
   100, 'BUS 100     ',        11, 1,    1,    1, 1,           1,           0,  1.1,  0.9,  1.1,  0.9
   101, 'BUS 101     ',        11, 1,    1,    1, 1,           1,           0,  1.1,  0.9,  1.1,  0.9
   102, 'BUS 102     ',        11, 1,    1,    1, 1,           1,           0,  1.1,  0.9,  1.1,  0.9
   103, 'BUS 103     ',        11, 1,    1,    1, 1,           1,           0,  1.1,  0.9,  1.1,  0.9
   104, 'BUS 104     ',        11, 1,    1,    1, 1,           1,           0,  1.1,  0.9,  1.1,  0.9
   105, 'BUS 105     ',        11, 1,    1,    1, 1,           1,           0,  1.1,  0.9,  1.1,  0.9
   106, 'BUS 106     ',        11, 1,    1,    1, 1,           1,           0,  1.1,  0.9,  1.1,  0.9
   107, 'BUS 107     ',        11, 1,    1,    1, 1,           1,           0,  1.1,  0.9,  1.1,  0.9
   108, 'BUS 108     ',        11, 1,    1,    1, 1,           1,           0,  1.1,  0.9,  1.1,  0.9
   109, 'BUS 109     ',        11, 1,    1,    1, 1,           1,           0,  1.1,  0.9,  1.1,  0.9
   110, 'BUS 110     ',        11, 1,    1,    1, 1,           1,           0,  1.1,  0.9,  1.1,  0.9
   111, 'BUS 111     ',        11, 1,    1,    1, 1,           1,           0,  1.1,  0.9,  1.1,  0.9
   112, 'BUS 112     ',        11, 1,    1,    1, 1,           1,           0,  1.1,  0.9,  1.1,  0.9
   113, 'BUS 113     ',        11, 1,    1,    1, 1,           1,           0,  1.1,  0.9,  1.1,  0.9
   114, 'BUS 114     ',        11, 1,    1,    1, 1,           1,           0,  1.1,  0.9,  1.1,  0.9
   115, 'BUS 115     ',        11, 1,    1,    1, 1,           1,           0,  1.1,  0.9,  1.1,  0.9
   116, 'BUS 116     ',        11, 1,    1,    1, 1,           1,           0,  1.1,  0.9,  1.1,  0.9
   117, 'BUS 117     ',        11, 1,    1,    1, 1,           1,           0,  1.1,  0.9,  1.1,  0.9
   118, 'BUS 118     ',        11, 1,    1,    1, 1,           1,           0,  1.1,  0.9,  1.1,  0.9
0 / END OF BUS DATA, BEGIN LOAD DATA
     2,  1, 1,    1,    1,   0.13384,   0.10114, 0, 0, 0, 0, 1, 1, 0
     3,  1, 1,    1,    1,  0.016214,  0.011292, 0, 0, 0, 0, 1, 1, 0
     4,  1, 1,    1,    1,  0.034315,  0.021845, 0, 0, 0, 0, 1, 1, 0
     5,  1, 1,    1,    1,  0.073016,  0.063602, 0, 0, 0, 0, 1, 1, 0
     6,  1, 1,    1,    1,    0.1442,  0.068604, 0, 0, 0, 0, 1, 1, 0
     7,  1, 1,    1,    1,   0.10447,  0.061725, 0, 0, 0, 0, 1, 1, 0
     8,  1, 1,    1,    1,  0.028547,  0.011503, 0, 0, 0, 0, 1, 1, 0
     9,  1, 1,    1,    1,   0.08756,  0.051073, 0, 0, 0, 0, 1, 1, 0
    10,  1, 1,    1,    1,    0.1982,   0.10677, 0, 0, 0, 0, 1, 1, 0
    11,  1, 1,    1,    1,    0.1468,  0.075995, 0, 0, 0, 0, 1, 1, 0
    12,  1, 1,    1,    1,   0.02604,  0.018687, 0, 0, 0, 0, 1, 1, 0
    13,  1, 1,    1,    1,    0.0521,   0.02322, 0, 0, 0, 0, 1, 1, 0
    14,  1, 1,    1,    1,    0.1419,    0.1175, 0, 0, 0, 0, 1, 1, 0
    15,  1, 1,    1,    1,   0.02187,   0.02879, 0, 0, 0, 0, 1, 1, 0
    16,  1, 1,    1,    1,   0.03337,   0.02645, 0, 0, 0, 0, 1, 1, 0
    17,  1, 1,    1,    1,   0.03243,   0.02523, 0, 0, 0, 0, 1, 1, 0
    18,  1, 1,    1,    1,  0.020234,  0.011906, 0, 0, 0, 0, 1, 1, 0
    19,  1, 1,    1,    1,   0.15694,  0.078523, 0, 0, 0, 0, 1, 1, 0
    20,  1, 1,    1,    1,   0.54629,    0.3514, 0, 0, 0, 0, 1, 1, 0
    21,  1, 1,    1,    1,   0.18031,    0.1642, 0, 0, 0, 0, 1, 1, 0
    22,  1, 1,    1,    1,  0.093167,  0.054594, 0, 0, 0, 0, 1, 1, 0
    23,  1, 1,    1,    1,   0.08518,   0.03965, 0, 0, 0, 0, 1, 1, 0
    24,  1, 1,    1,    1,    0.1681,  0.095178, 0, 0, 0, 0, 1, 1, 0
    25,  1, 1,    1,    1,   0.12511,   0.15022, 0, 0, 0, 0, 1, 1, 0
    26,  1, 1,    1,    1,   0.01603,   0.02462, 0, 0, 0, 0, 1, 1, 0
    27,  1, 1,    1,    1,   0.02603,   0.02462, 0, 0, 0, 0, 1, 1, 0
    28,  1, 1,    1,    1,   0.59456,   0.52262, 0, 0, 0, 0, 1, 1, 0
    29,  1, 1,    1,    1,   0.12062,  0.059117, 0, 0, 0, 0, 1, 1, 0
    30,  1, 1,    1,    1,   0.10238,  0.099554, 0, 0, 0, 0, 1, 1, 0
    31,  1, 1,    1,    1,    0.5134,    0.3185, 0, 0, 0, 0, 1, 1, 0
    32,  1, 1,    1,    1,   0.47525,   0.45614, 0, 0, 0, 0, 1, 1, 0
    33,  1, 1,    1,    1,   0.15143,   0.13679, 0, 0, 0, 0, 1, 1, 0
    34,  1, 1,    1,    1,   0.20538,  0.083302, 0, 0, 0, 0, 1, 1, 0
    35,  1, 1,    1,    1,    0.1316,  0.093082, 0, 0, 0, 0, 1, 1, 0
    36,  1, 1,    1,    1,    0.4484,   0.36979, 0, 0, 0, 0, 1, 1, 0
    37,  1, 1,    1,    1,   0.44052,   0.32164, 0, 0, 0, 0, 1, 1, 0
    38,  1, 1,    1,    1,   0.11254,  0.055134, 0, 0, 0, 0, 1, 1, 0
    39,  1, 1,    1,    1,  0.053963,  0.038998, 0, 0, 0, 0, 1, 1, 0
    40,  1, 1,    1,    1,   0.39305,    0.3426, 0, 0, 0, 0, 1, 1, 0
    41,  1, 1,    1,    1,   0.32674,   0.27856, 0, 0, 0, 0, 1, 1, 0
    42,  1, 1,    1,    1,   0.53626,   0.24024, 0, 0, 0, 0, 1, 1, 0
    43,  1, 1,    1,    1,  0.076247,  0.066562, 0, 0, 0, 0, 1, 1, 0
    44,  1, 1,    1,    1,   0.05352,   0.03976, 0, 0, 0, 0, 1, 1, 0
    45,  1, 1,    1,    1,  0.040328,  0.031964, 0, 0, 0, 0, 1, 1, 0
    46,  1, 1,    1,    1,  0.039653,  0.020758, 0, 0, 0, 0, 1, 1, 0
    47,  1, 1,    1,    1,  0.066195,  0.042361, 0, 0, 0, 0, 1, 1, 0
    48,  1, 1,    1,    1,  0.073904,  0.051653, 0, 0, 0, 0, 1, 1, 0
    49,  1, 1,    1,    1,   0.11477,  0.057965, 0, 0, 0, 0, 1, 1, 0
    50,  1, 1,    1,    1,   0.91837,    1.2051, 0, 0, 0, 0, 1, 1, 0
    51,  1, 1,    1,    1,    0.2103,   0.14666, 0, 0, 0, 0, 1, 1, 0
    52,  1, 1,    1,    1,   0.06668,  0.056608, 0, 0, 0, 0, 1, 1, 0
    53,  1, 1,    1,    1,  0.042207,  0.040184, 0, 0, 0, 0, 1, 1, 0
    54,  1, 1,    1,    1,   0.43374,   0.28341, 0, 0, 0, 0, 1, 1, 0
    55,  1, 1,    1,    1,    0.0621,   0.02686, 0, 0, 0, 0, 1, 1, 0
    56,  1, 1,    1,    1,   0.09246,   0.08838, 0, 0, 0, 0, 1, 1, 0
    57,  1, 1,    1,    1,  0.085188,  0.055436, 0, 0, 0, 0, 1, 1, 0
    58,  1, 1,    1,    1,    0.3453,    0.3324, 0, 0, 0, 0, 1, 1, 0
    59,  1, 1,    1,    1,    0.0225,   0.01683, 0, 0, 0, 0, 1, 1, 0
    60,  1, 1,    1,    1,  0.080551,  0.049156, 0, 0, 0, 0, 1, 1, 0
    61,  1, 1,    1,    1,   0.09586,  0.090758, 0, 0, 0, 0, 1, 1, 0
    62,  1, 1,    1,    1,   0.06292,    0.0477, 0, 0, 0, 0, 1, 1, 0
    63,  1, 1,    1,    1,    0.4788,   0.46374, 0, 0, 0, 0, 1, 1, 0
    64,  1, 1,    1,    1,   0.12094,  0.052006, 0, 0, 0, 0, 1, 1, 0
    65,  1, 1,    1,    1,   0.13911,   0.10034, 0, 0, 0, 0, 1, 1, 0
    66,  1, 1,    1,    1,   0.39178,    0.1935, 0, 0, 0, 0, 1, 1, 0
    67,  1, 1,    1,    1,  0.027741,  0.026713, 0, 0, 0, 0, 1, 1, 0
    68,  1, 1,    1,    1,  0.052814,  0.025257, 0, 0, 0, 0, 1, 1, 0
    69,  1, 1,    1,    1,   0.06689,  0.038713, 0, 0, 0, 0, 1, 1, 0
    70,  1, 1,    1,    1,    0.4675,   0.39514, 0, 0, 0, 0, 1, 1, 0
    71,  1, 1,    1,    1,   0.59485,   0.23974, 0, 0, 0, 0, 1, 1, 0
    72,  1, 1,    1,    1,    0.1325,  0.084363, 0, 0, 0, 0, 1, 1, 0
    73,  1, 1,    1,    1,  0.052699,  0.022482, 0, 0, 0, 0, 1, 1, 0
    74,  1, 1,    1,    1,   0.86979,  0.614775, 0, 0, 0, 0, 1, 1, 0
    75,  1, 1,    1,    1,  0.031349,  0.029817, 0, 0, 0, 0, 1, 1, 0
    76,  1, 1,    1,    1,   0.19239,   0.12243, 0, 0, 0, 0, 1, 1, 0
    77,  1, 1,    1,    1,   0.06575,   0.04537, 0, 0, 0, 0, 1, 1, 0
    78,  1, 1,    1,    1,   0.23815,   0.22322, 0, 0, 0, 0, 1, 1, 0
    79,  1, 1,    1,    1,   0.29455,   0.16247, 0, 0, 0, 0, 1, 1, 0
    80,  1, 1,    1,    1,   0.48557,   0.43792, 0, 0, 0, 0, 1, 1, 0
    81,  1, 1,    1,    1,   0.24353,   0.18303, 0, 0, 0, 0, 1, 1, 0
    82,  1, 1,    1,    1,   0.24353,   0.18303, 0, 0, 0, 0, 1, 1, 0
    83,  1, 1,    1,    1,   0.13425,   0.11929, 0, 0, 0, 0, 1, 1, 0
    84,  1, 1,    1,    1,   0.02271,   0.02796, 0, 0, 0, 0, 1, 1, 0
    85,  1, 1,    1,    1,  0.049513,  0.026515, 0, 0, 0, 0, 1, 1, 0
    86,  1, 1,    1,    1,   0.38378,   0.25716, 0, 0, 0, 0, 1, 1, 0
    87,  1, 1,    1,    1,   0.04964,    0.0206, 0, 0, 0, 0, 1, 1, 0
    88,  1, 1,    1,    1,  0.022473,  0.011806, 0, 0, 0, 0, 1, 1, 0
    89,  1, 1,    1,    1,   0.06293,   0.04296, 0, 0, 0, 0, 1, 1, 0
    90,  1, 1,    1,    1,   0.03067,   0.03493, 0, 0, 0, 0, 1, 1, 0
    91,  1, 1,    1,    1,   0.06253,   0.06679, 0, 0, 0, 0, 1, 1, 0
    92,  1, 1,    1,    1,   0.11457,  0.081748, 0, 0, 0, 0, 1, 1, 0
    93,  1, 1,    1,    1,  0.081292,  0.066526, 0, 0, 0, 0, 1, 1, 0
    94,  1, 1,    1,    1,  0.031733,   0.01596, 0, 0, 0, 0, 1, 1, 0
    95,  1, 1,    1,    1,   0.03332,   0.06048, 0, 0, 0, 0, 1, 1, 0
    96,  1, 1,    1,    1,   0.53128,   0.22485, 0, 0, 0, 0, 1, 1, 0
    97,  1, 1,    1,    1,   0.50703,   0.36742, 0, 0, 0, 0, 1, 1, 0
    98,  1, 1,    1,    1,   0.02639,    0.0117, 0, 0, 0, 0, 1, 1, 0
    99,  1, 1,    1,    1,   0.04599,  0.030392, 0, 0, 0, 0, 1, 1, 0
   100,  1, 1,    1,    1,   0.10066,  0.047572, 0, 0, 0, 0, 1, 1, 0
   101,  1, 1,    1,    1,   0.45648,    0.3503, 0, 0, 0, 0, 1, 1, 0
   102,  1, 1,    1,    1,   0.52256,   0.44929, 0, 0, 0, 0, 1, 1, 0
   103,  1, 1,    1,    1,   0.40843,   0.16846, 0, 0, 0, 0, 1, 1, 0
   104,  1, 1,    1,    1,   0.14148,   0.13425, 0, 0, 0, 0, 1, 1, 0
   105,  1, 1,    1,    1,   0.10443,  0.066024, 0, 0, 0, 0, 1, 1, 0
   106,  1, 1,    1,    1,  0.096793,  0.083647, 0, 0, 0, 0, 1, 1, 0
   107,  1, 1,    1,    1,   0.49392,   0.41934, 0, 0, 0, 0, 1, 1, 0
   108,  1, 1,    1,    1,   0.22538,   0.13588, 0, 0, 0, 0, 1, 1, 0
   109,  1, 1,    1,    1,   0.50921,   0.38721, 0, 0, 0, 0, 1, 1, 0
   110,  1, 1,    1,    1,    0.1885,   0.17346, 0, 0, 0, 0, 1, 1, 0
   111,  1, 1,    1,    1,   0.91803,   0.89855, 0, 0, 0, 0, 1, 1, 0
   112,  1, 1,    1,    1,   0.30508,   0.21537, 0, 0, 0, 0, 1, 1, 0
   113,  1, 1,    1,    1,   0.05438,   0.04097, 0, 0, 0, 0, 1, 1, 0
   114,  1, 1,    1,    1,   0.21114,    0.1929, 0, 0, 0, 0, 1, 1, 0
   115,  1, 1,    1,    1,  0.067009,  0.053336, 0, 0, 0, 0, 1, 1, 0
   116,  1, 1,    1,    1,   0.16207,  0.090321, 0, 0, 0, 0, 1, 1, 0
   117,  1, 1,    1,    1,  0.048785,  0.029156, 0, 0, 0, 0, 1, 1, 0
   118,  1, 1,    1,    1,    0.0339,   0.01898, 0, 0, 0, 0, 1, 1, 0
0 / END OF LOAD DATA, BEGIN FIXED SHUNT DATA
0 / END OF FIXED SHUNT DATA, BEGIN GENERATOR DATA
     1,  1,         0,         0,        10,       -10,        1, 0,     100, 0, 1, 0, 0, 1, 1, 100,        10,         0, 1, 1, 0, 1, 0, 1, 0, 1, 0, 1
0 / END OF GENERATOR DATA, BEGIN BRANCH DATA
     1,      2, 1, 0.002975207, 0.001071074,        0,       0,       0,       0, 0, 0, 0, 0, 1, 1, 0, 1, 1, 0, 1, 0, 1, 0, 1
     2,      3, 1, 0.002727273, 0.0009818182,        0,       0,       0,       0, 0, 0, 0, 0, 1, 1, 0, 1, 1, 0, 1, 0, 1, 0, 1
     2,      4, 1, 0.003719008, 0.001338843,        0,       0,       0,       0, 0, 0, 0, 0, 1, 1, 0, 1, 1, 0, 1, 0, 1, 0, 1
     4,      5, 1, 0.001239669, 0.00446281,        0,       0,       0,       0, 0, 0, 0, 0, 1, 1, 0, 1, 1, 0, 1, 0, 1, 0, 1
     5,      6, 1, 0.001239669, 0.00446281,        0,       0,       0,       0, 0, 0, 0, 0, 1, 1, 0, 1, 1, 0, 1, 0, 1, 0, 1
     6,      7, 1, 0.001239669, 0.001033058,        0,       0,       0,       0, 0, 0, 0, 0, 1, 1, 0, 1, 1, 0, 1, 0, 1, 0, 1
     7,      8, 1, 0.001487603, 0.001157025,        0,       0,       0,       0, 0, 0, 0, 0, 1, 1, 0, 1, 1, 0, 1, 0, 1, 0, 1
     8,      9, 1, 0.001735537, 0.005206612,        0,       0,       0,       0, 0, 0, 0, 0, 1, 1, 0, 1, 1, 0, 1, 0, 1, 0, 1
     2,     10, 1, 0.01371901, 0.01110744,        0,       0,       0,       0, 0, 0, 0, 0, 1, 1, 0, 1, 1, 0, 1, 0, 1, 0, 1
    10,     11, 1, 0.009256198, 0.006520661,        0,       0,       0,       0, 0, 0, 0, 0, 1, 1, 0, 1, 1, 0, 1, 0, 1, 0, 1
    11,     12, 1, 0.01545455, 0.02586777,        0,       0,       0,       0, 0, 0, 0, 0, 1, 1, 0, 1, 1, 0, 1, 0, 1, 0, 1
    12,     13, 1, 0.01173554, 0.01249587,        0,       0,       0,       0, 0, 0, 0, 0, 1, 1, 0, 1, 1, 0, 1, 0, 1, 0, 1
    13,     14, 1, 0.01487603, 0.009752066,        0,       0,       0,       0, 0, 0, 0, 0, 1, 1, 0, 1, 1, 0, 1, 0, 1, 0, 1
    14,     15, 1, 0.01239669, 0.003719008,        0,       0,       0,       0, 0, 0, 0, 0, 1, 1, 0, 1, 1, 0, 1, 0, 1, 0, 1
    15,     16, 1, 0.01322314, 0.01487603,        0,       0,       0,       0, 0, 0, 0, 0, 1, 1, 0, 1, 1, 0, 1, 0, 1, 0, 1
    16,     17, 1, 0.01297521, 0.01413223,        0,       0,       0,       0, 0, 0, 0, 0, 1, 1, 0, 1, 1, 0, 1, 0, 1, 0, 1
    11,     18, 1, 0.01801653, 0.02355372,        0,       0,       0,       0, 0, 0, 0, 0, 1, 1, 0, 1, 1, 0, 1, 0, 1, 0, 1
    18,     19, 1, 0.009752066, 0.01528926,        0,       0,       0,       0, 0, 0, 0, 0, 1, 1, 0, 1, 1, 0, 1, 0, 1, 0, 1
    19,     20, 1, 0.01322314, 0.01619835,        0,       0,       0,       0, 0, 0, 0, 0, 1, 1, 0, 1, 1, 0, 1, 0, 1, 0, 1
    20,     21, 1, 0.009917355, 0.01561983,        0,       0,       0,       0, 0, 0, 0, 0, 1, 1, 0, 1, 1, 0, 1, 0, 1, 0, 1
    21,     22, 1, 0.009917355, 0.006520661,        0,       0,       0,       0, 0, 0, 0, 0, 1, 1, 0, 1, 1, 0, 1, 0, 1, 0, 1
    22,     23, 1, 0.1165289, 0.05975207,        0,       0,       0,       0, 0, 0, 0, 0, 1, 1, 0, 1, 1, 0, 1, 0, 1, 0, 1
    23,     24, 1, 0.02421488, 0.0111405,        0,       0,       0,       0, 0, 0, 0, 0, 1, 1, 0, 1, 1, 0, 1, 0, 1, 0, 1
    24,     25, 1, 0.01099174, 0.008595041,        0,       0,       0,       0, 0, 0, 0, 0, 1, 1, 0, 1, 1, 0, 1, 0, 1, 0, 1
    25,     26, 1, 0.01471074, 0.01107438,        0,       0,       0,       0, 0, 0, 0, 0, 1, 1, 0, 1, 1, 0, 1, 0, 1, 0, 1
    26,     27, 1, 0.01471074, 0.01107438,        0,       0,       0,       0, 0, 0, 0, 0, 1, 1, 0, 1, 1, 0, 1, 0, 1, 0, 1
     4,     28, 1, 0.001239669, 0.002446281,        0,       0,       0,       0, 0, 0, 0, 0, 1, 1, 0, 1, 1, 0, 1, 0, 1, 0, 1
    28,     29, 1, 0.0009917355, 0.002280992,        0,       0,       0,       0, 0, 0, 0, 0, 1, 1, 0, 1, 1, 0, 1, 0, 1, 0, 1
    29,     30, 1, 0.009917355, 0.0228595,        0,       0,       0,       0, 0, 0, 0, 0, 1, 1, 0, 1, 1, 0, 1, 0, 1, 0, 1
    30,     31, 1, 0.01735537, 0.02008264,        0,       0,       0,       0, 0, 0, 0, 0, 1, 1, 0, 1, 1, 0, 1, 0, 1, 0, 1
    31,     32, 1, 0.009917355, 0.00446281,        0,       0,       0,       0, 0, 0, 0, 0, 1, 1, 0, 1, 1, 0, 1, 0, 1, 0, 1
    32,     33, 1, 0.01471074, 0.01933884,        0,       0,       0,       0, 0, 0, 0, 0, 1, 1, 0, 1, 1, 0, 1, 0, 1, 0, 1
    33,     34, 1, 0.01471074, 0.01933884,        0,       0,       0,       0, 0, 0, 0, 0, 1, 1, 0, 1, 1, 0, 1, 0, 1, 0, 1
    34,     35, 1, 0.01272727, 0.01338843,        0,       0,       0,       0, 0, 0, 0, 0, 1, 1, 0, 1, 1, 0, 1, 0, 1, 0, 1
    30,     36, 1, 0.01545455, 0.02157025,        0,       0,       0,       0, 0, 0, 0, 0, 1, 1, 0, 1, 1, 0, 1, 0, 1, 0, 1
    36,     37, 1, 0.01099174, 0.008181818,        0,       0,       0,       0, 0, 0, 0, 0, 1, 1, 0, 1, 1, 0, 1, 0, 1, 0, 1
    29,     38, 1, 0.02727273, 0.01603306,        0,       0,       0,       0, 0, 0, 0, 0, 1, 1, 0, 1, 1, 0, 1, 0, 1, 0, 1
    38,     39, 1, 0.02561983, 0.01603306,        0,       0,       0,       0, 0, 0, 0, 0, 1, 1, 0, 1, 1, 0, 1, 0, 1, 0, 1
    39,     40, 1, 0.0107438, 0.01603306,        0,       0,       0,       0, 0, 0, 0, 0, 1, 1, 0, 1, 1, 0, 1, 0, 1, 0, 1
    40,     41, 1, 0.0231405, 0.01239669,        0,       0,       0,       0, 0, 0, 0, 0, 1, 1, 0, 1, 1, 0, 1, 0, 1, 0, 1
    41,     42, 1, 0.09752066, 0.07024793,        0,       0,       0,       0, 0, 0, 0, 0, 1, 1, 0, 1, 1, 0, 1, 0, 1, 0, 1
    42,     43, 1, 0.03471074, 0.02013223,        0,       0,       0,       0, 0, 0, 0, 0, 1, 1, 0, 1, 1, 0, 1, 0, 1, 0, 1
    43,     44, 1, 0.02231405, 0.008033058,        0,       0,       0,       0, 0, 0, 0, 0, 1, 1, 0, 1, 1, 0, 1, 0, 1, 0, 1
    44,     45, 1, 0.02801653, 0.01009091,        0,       0,       0,       0, 0, 0, 0, 0, 1, 1, 0, 1, 1, 0, 1, 0, 1, 0, 1
    45,     46, 1, 0.02231405, 0.01470248,        0,       0,       0,       0, 0, 0, 0, 0, 1, 1, 0, 1, 1, 0, 1, 0, 1, 0, 1
    35,     47, 1, 0.01735537, 0.01142975,        0,       0,       0,       0, 0, 0, 0, 0, 1, 1, 0, 1, 1, 0, 1, 0, 1, 0, 1
    47,     48, 1, 0.009917355, 0.006520661,        0,       0,       0,       0, 0, 0, 0, 0, 1, 1, 0, 1, 1, 0, 1, 0, 1, 0, 1
    48,     49, 1, 0.01239669, 0.008157025,        0,       0,       0,       0, 0, 0, 0, 0, 1, 1, 0, 1, 1, 0, 1, 0, 1, 0, 1
    49,     50, 1, 0.01239669, 0.008157025,        0,       0,       0,       0, 0, 0, 0, 0, 1, 1, 0, 1, 1, 0, 1, 0, 1, 0, 1
    50,     51, 1, 0.01983471, 0.01306612,        0,       0,       0,       0, 0, 0, 0, 0, 1, 1, 0, 1, 1, 0, 1, 0, 1, 0, 1
    51,     52, 1, 0.009917355, 0.006520661,        0,       0,       0,       0, 0, 0, 0, 0, 1, 1, 0, 1, 1, 0, 1, 0, 1, 0, 1
    52,     53, 1, 0.03347107, 0.01204959,        0,       0,       0,       0, 0, 0, 0, 0, 1, 1, 0, 1, 1, 0, 1, 0, 1, 0, 1
    53,     54, 1, 0.03347107, 0.01204959,        0,       0,       0,       0, 0, 0, 0, 0, 1, 1, 0, 1, 1, 0, 1, 0, 1, 0, 1
    29,     55, 1, 0.03231405, 0.01165289,        0,       0,       0,       0, 0, 0, 0, 0, 1, 1, 0, 1, 1, 0, 1, 0, 1, 0, 1
    55,     56, 1, 0.03355372, 0.01207438,        0,       0,       0,       0, 0, 0, 0, 0, 1, 1, 0, 1, 1, 0, 1, 0, 1, 0, 1
    56,     57, 1, 0.03355372, 0.01207438,        0,       0,       0,       0, 0, 0, 0, 0, 1, 1, 0, 1, 1, 0, 1, 0, 1, 0, 1
    57,     58, 1, 0.05834711, 0.04513223,        0,       0,       0,       0, 0, 0, 0, 0, 1, 1, 0, 1, 1, 0, 1, 0, 1, 0, 1
    58,     59, 1, 0.02793388, 0.01006612,        0,       0,       0,       0, 0, 0, 0, 0, 1, 1, 0, 1, 1, 0, 1, 0, 1, 0, 1
    59,     60, 1, 0.02793388, 0.01006612,        0,       0,       0,       0, 0, 0, 0, 0, 1, 1, 0, 1, 1, 0, 1, 0, 1, 0, 1
    60,     61, 1, 0.01710744, 0.006173554,        0,       0,       0,       0, 0, 0, 0, 0, 1, 1, 0, 1, 1, 0, 1, 0, 1, 0, 1
    61,     62, 1, 0.02041322, 0.07373554,        0,       0,       0,       0, 0, 0, 0, 0, 1, 1, 0, 1, 1, 0, 1, 0, 1, 0, 1
     1,     63, 1, 0.00231405, 0.003454545,        0,       0,       0,       0, 0, 0, 0, 0, 1, 1, 0, 1, 1, 0, 1, 0, 1, 0, 1
    63,     64, 1, 0.009669421, 0.01666116,        0,       0,       0,       0, 0, 0, 0, 0, 1, 1, 0, 1, 1, 0, 1, 0, 1, 0, 1
    64,     65, 1, 0.02107438, 0.007586777,        0,       0,       0,       0, 0, 0, 0, 0, 1, 1, 0, 1, 1, 0, 1, 0, 1, 0, 1
    65,     66, 1, 0.01735537, 0.006272727,        0,       0,       0,       0, 0, 0, 0, 0, 1, 1, 0, 1, 1, 0, 1, 0, 1, 0, 1
    66,     67, 1, 0.03165289, 0.01140496,        0,       0,       0,       0, 0, 0, 0, 0, 1, 1, 0, 1, 1, 0, 1, 0, 1, 0, 1
    67,     68, 1, 0.04165289, 0.02729752,        0,       0,       0,       0, 0, 0, 0, 0, 1, 1, 0, 1, 1, 0, 1, 0, 1, 0, 1
    68,     69, 1, 0.03355372, 0.01207438,        0,       0,       0,       0, 0, 0, 0, 0, 1, 1, 0, 1, 1, 0, 1, 0, 1, 0, 1
    69,     70, 1, 0.07950413, 0.06289256,        0,       0,       0,       0, 0, 0, 0, 0, 1, 1, 0, 1, 1, 0, 1, 0, 1, 0, 1
    70,     71, 1, 0.01363636, 0.004958678,        0,       0,       0,       0, 0, 0, 0, 0, 1, 1, 0, 1, 1, 0, 1, 0, 1, 0, 1
    71,     72, 1, 0.02504132, 0.009024793,        0,       0,       0,       0, 0, 0, 0, 0, 1, 1, 0, 1, 1, 0, 1, 0, 1, 0, 1
    72,     73, 1, 0.02504132, 0.009024793,        0,       0,       0,       0, 0, 0, 0, 0, 1, 1, 0, 1, 1, 0, 1, 0, 1, 0, 1
    73,     74, 1, 0.01702479, 0.01190083,        0,       0,       0,       0, 0, 0, 0, 0, 1, 1, 0, 1, 1, 0, 1, 0, 1, 0, 1
    74,     75, 1, 0.0192562, 0.006942149,        0,       0,       0,       0, 0, 0, 0, 0, 1, 1, 0, 1, 1, 0, 1, 0, 1, 0, 1
    75,     76, 1, 0.04884298, 0.01465289,        0,       0,       0,       0, 0, 0, 0, 0, 1, 1, 0, 1, 1, 0, 1, 0, 1, 0, 1
    76,     77, 1, 0.01041322, 0.003743802,        0,       0,       0,       0, 0, 0, 0, 0, 1, 1, 0, 1, 1, 0, 1, 0, 1, 0, 1
    64,     78, 1, 0.04619835, 0.03047107,        0,       0,       0,       0, 0, 0, 0, 0, 1, 1, 0, 1, 1, 0, 1, 0, 1, 0, 1
    78,     79, 1, 0.0153719, 0.0101405,        0,       0,       0,       0, 0, 0, 0, 0, 1, 1, 0, 1, 1, 0, 1, 0, 1, 0, 1
    79,     80, 1, 0.0153719, 0.0101405,        0,       0,       0,       0, 0, 0, 0, 0, 1, 1, 0, 1, 1, 0, 1, 0, 1, 0, 1
    80,     81, 1, 0.0214876, 0.0114876,        0,       0,       0,       0, 0, 0, 0, 0, 1, 1, 0, 1, 1, 0, 1, 0, 1, 0, 1
    81,     82, 1, 0.01272727, 0.0122314,        0,       0,       0,       0, 0, 0, 0, 0, 1, 1, 0, 1, 1, 0, 1, 0, 1, 0, 1
    82,     83, 1, 0.01900826, 0.01057851,        0,       0,       0,       0, 0, 0, 0, 0, 1, 1, 0, 1, 1, 0, 1, 0, 1, 0, 1
    83,     84, 1, 0.02082645, 0.008760331,        0,       0,       0,       0, 0, 0, 0, 0, 1, 1, 0, 1, 1, 0, 1, 0, 1, 0, 1
    84,     85, 1, 0.01487603, 0.0122314,        0,       0,       0,       0, 0, 0, 0, 0, 1, 1, 0, 1, 1, 0, 1, 0, 1, 0, 1
    79,     86, 1, 0.01322314, 0.01504132,        0,       0,       0,       0, 0, 0, 0, 0, 1, 1, 0, 1, 1, 0, 1, 0, 1, 0, 1
    86,     87, 1, 0.01652893, 0.01900826,        0,       0,       0,       0, 0, 0, 0, 0, 1, 1, 0, 1, 1, 0, 1, 0, 1, 0, 1
    87,     88, 1, 0.01322314, 0.03247934,        0,       0,       0,       0, 0, 0, 0, 0, 1, 1, 0, 1, 1, 0, 1, 0, 1, 0, 1
    65,     89, 1, 0.05528926, 0.01993388,        0,       0,       0,       0, 0, 0, 0, 0, 1, 1, 0, 1, 1, 0, 1, 0, 1, 0, 1
    89,     90, 1, 0.02198347, 0.0101405,        0,       0,       0,       0, 0, 0, 0, 0, 1, 1, 0, 1, 1, 0, 1, 0, 1, 0, 1
    90,     91, 1, 0.02198347, 0.0101405,        0,       0,       0,       0, 0, 0, 0, 0, 1, 1, 0, 1, 1, 0, 1, 0, 1, 0, 1
    91,     92, 1, 0.02198347, 0.0101405,        0,       0,       0,       0, 0, 0, 0, 0, 1, 1, 0, 1, 1, 0, 1, 0, 1, 0, 1
    92,     93, 1, 0.02198347, 0.0101405,        0,       0,       0,       0, 0, 0, 0, 0, 1, 1, 0, 1, 1, 0, 1, 0, 1, 0, 1
    93,     94, 1, 0.0192562, 0.009504132,        0,       0,       0,       0, 0, 0, 0, 0, 1, 1, 0, 1, 1, 0, 1, 0, 1, 0, 1
    94,     95, 1, 0.04099174, 0.01140496,        0,       0,       0,       0, 0, 0, 0, 0, 1, 1, 0, 1, 1, 0, 1, 0, 1, 0, 1
    91,     96, 1, 0.01619835, 0.01487603,        0,       0,       0,       0, 0, 0, 0, 0, 1, 1, 0, 1, 1, 0, 1, 0, 1, 0, 1
    96,     97, 1, 0.01619835, 0.01487603,        0,       0,       0,       0, 0, 0, 0, 0, 1, 1, 0, 1, 1, 0, 1, 0, 1, 0, 1
    97,     98, 1, 0.01542149, 0.01008264,        0,       0,       0,       0, 0, 0, 0, 0, 1, 1, 0, 1, 1, 0, 1, 0, 1, 0, 1
    98,     99, 1, 0.006165289, 0.02628099,        0,       0,       0,       0, 0, 0, 0, 0, 1, 1, 0, 1, 1, 0, 1, 0, 1, 0, 1
     1,    100, 1, 0.005165289, 0.002190083,        0,       0,       0,       0, 0, 0, 0, 0, 1, 1, 0, 1, 1, 0, 1, 0, 1, 0, 1
   100,    101, 1, 0.01240496, 0.01933884,        0,       0,       0,       0, 0, 0, 0, 0, 1, 1, 0, 1, 1, 0, 1, 0, 1, 0, 1
   101,    102, 1, 0.01113223, 0.007338843,        0,       0,       0,       0, 0, 0, 0, 0, 1, 1, 0, 1, 1, 0, 1, 0, 1, 0, 1
   102,    103, 1, 0.01906612, 0.009942149,        0,       0,       0,       0, 0, 0, 0, 0, 1, 1, 0, 1, 1, 0, 1, 0, 1, 0, 1
   103,    104, 1, 0.03694215, 0.01328926,        0,       0,       0,       0, 0, 0, 0, 0, 1, 1, 0, 1, 1, 0, 1, 0, 1, 0, 1
   104,    105, 1, 0.0134876, 0.004859504,        0,       0,       0,       0, 0, 0, 0, 0, 1, 1, 0, 1, 1, 0, 1, 0, 1, 0, 1
   105,    106, 1, 0.02727273, 0.008181818,        0,       0,       0,       0, 0, 0, 0, 0, 1, 1, 0, 1, 1, 0, 1, 0, 1, 0, 1
   106,    107, 1, 0.01289256, 0.004636364,        0,       0,       0,       0, 0, 0, 0, 0, 1, 1, 0, 1, 1, 0, 1, 0, 1, 0, 1
   107,    108, 1, 0.03156198, 0.01135537,        0,       0,       0,       0, 0, 0, 0, 0, 1, 1, 0, 1, 1, 0, 1, 0, 1, 0, 1
   108,    109, 1, 0.01343802, 0.004834711,        0,       0,       0,       0, 0, 0, 0, 0, 1, 1, 0, 1, 1, 0, 1, 0, 1, 0, 1
   109,    110, 1, 0.03156198, 0.01135537,        0,       0,       0,       0, 0, 0, 0, 0, 1, 1, 0, 1, 1, 0, 1, 0, 1, 0, 1
   110,    111, 1, 0.02020661, 0.007264463,        0,       0,       0,       0, 0, 0, 0, 0, 1, 1, 0, 1, 1, 0, 1, 0, 1, 0, 1
   110,    112, 1, 0.0172562, 0.00622314,        0,       0,       0,       0, 0, 0, 0, 0, 1, 1, 0, 1, 1, 0, 1, 0, 1, 0, 1
   112,    113, 1, 0.01901653, 0.006842975,        0,       0,       0,       0, 0, 0, 0, 0, 1, 1, 0, 1, 1, 0, 1, 0, 1, 0, 1
   100,    114, 1, 0.05042975, 0.01814876,        0,       0,       0,       0, 0, 0, 0, 0, 1, 1, 0, 1, 1, 0, 1, 0, 1, 0, 1
   114,    115, 1, 0.01542149, 0.01049587,        0,       0,       0,       0, 0, 0, 0, 0, 1, 1, 0, 1, 1, 0, 1, 0, 1, 0, 1
   115,    116, 1, 0.03084298, 0.02033058,        0,       0,       0,       0, 0, 0, 0, 0, 1, 1, 0, 1, 1, 0, 1, 0, 1, 0, 1
   116,    117, 1, 0.03347107, 0.03033058,        0,       0,       0,       0, 0, 0, 0, 0, 1, 1, 0, 1, 1, 0, 1, 0, 1, 0, 1
   117,    118, 1, 0.04041322, 0.03619835,        0,       0,       0,       0, 0, 0, 0, 0, 1, 1, 0, 1, 1, 0, 1, 0, 1, 0, 1
    46,     27, 1, 0.04345455, 0.02417355,        0,       0,       0,       0, 0, 0, 0, 0, 0, 1, 0, 1, 1, 0, 1, 0, 1, 0, 1
    17,     27, 1, 0.04345455, 0.02409917,        0,       0,       0,       0, 0, 0, 0, 0, 0, 1, 0, 1, 1, 0, 1, 0, 1, 0, 1
     8,     24, 1, 0.03530579, 0.01271901,        0,       0,       0,       0, 0, 0, 0, 0, 0, 1, 0, 1, 1, 0, 1, 0, 1, 0, 1
    54,     43, 1, 0.03966942, 0.01428099,        0,       0,       0,       0, 0, 0, 0, 0, 0, 1, 0, 1, 1, 0, 1, 0, 1, 0, 1
    62,     49, 1, 0.02975207, 0.01071074,        0,       0,       0,       0, 0, 0, 0, 0, 0, 1, 0, 1, 1, 0, 1, 0, 1, 0, 1
    37,     62, 1, 0.04710744, 0.04727273,        0,       0,       0,       0, 0, 0, 0, 0, 0, 1, 0, 1, 1, 0, 1, 0, 1, 0, 1
     9,     40, 1, 0.04380165, 0.02766942,        0,       0,       0,       0, 0, 0, 0, 0, 0, 1, 0, 1, 1, 0, 1, 0, 1, 0, 1
    58,     96, 1, 0.03270248, 0.01177686,        0,       0,       0,       0, 0, 0, 0, 0, 0, 1, 0, 1, 1, 0, 1, 0, 1, 0, 1
    73,     91, 1, 0.05619835, 0.05355372,        0,       0,       0,       0, 0, 0, 0, 0, 0, 1, 0, 1, 1, 0, 1, 0, 1, 0, 1
    88,     75, 1, 0.03357025, 0.01209917,        0,       0,       0,       0, 0, 0, 0, 0, 0, 1, 0, 1, 1, 0, 1, 0, 1, 0, 1
    99,     77, 1, 0.0382314, 0.01383471,        0,       0,       0,       0, 0, 0, 0, 0, 0, 1, 0, 1, 1, 0, 1, 0, 1, 0, 1
   108,     83, 1, 0.05380165, 0.01933884,        0,       0,       0,       0, 0, 0, 0, 0, 0, 1, 0, 1, 1, 0, 1, 0, 1, 0, 1
   105,     86, 1, 0.06714876, 0.02417355,        0,       0,       0,       0, 0, 0, 0, 0, 0, 1, 0, 1, 1, 0, 1, 0, 1, 0, 1
   110,    118, 1, 0.05858678, 0.02109917,        0,       0,       0,       0, 0, 0, 0, 0, 0, 1, 0, 1, 1, 0, 1, 0, 1, 0, 1
    25,     35, 1, 0.04132231, 0.04132231,        0,       0,       0,       0, 0, 0, 0, 0, 0, 1, 0, 1, 1, 0, 1, 0, 1, 0, 1
0 / END OF BRANCH DATA, BEGIN TRANSFORMER DATA
0 / END OF TRANSFORMER DATA, BEGIN AREA DATA
0 / END OF AREA DATA, BEGIN TWO-TERMINAL DC DATA
0 / END OF TWO-TERMINAL DC DATA, BEGIN VOLTAGE SOURCE CONVERTER DATA
0 / END OF VOLTAGE SOURCE CONVERTER DATA, BEGIN IMPEDANCE CORRECTION DATA
0 / END OF IMPEDANCE CORRECTION DATA, BEGIN MULTI-TERMINAL DC DATA
0 / END OF MULTI-TERMINAL DC DATA, BEGIN MULTI-SECTION LINE DATA
0 / END OF MULTI-SECTION LINE DATA, BEGIN ZONE DATA
0 / END OF ZONE DATA, BEGIN INTER-AREA TRANSFER DATA
0 / END OF INTER-AREA TRANSFER DATA, BEGIN OWNER DATA
0 / END OF OWNER DATA, BEGIN FACTS CONTROL DEVICE DATA
0 / END OF FACTS CONTROL DEVICE DATA, BEGIN SWITCHED SHUNT DATA
0 / END OF SWITCHED SHUNT DATA, BEGIN GNE DEVICE DATA
0 / END OF GNE DEVICE DATA, BEGIN INDUCTION MACHINE DATA
0 / END OF INDUCTION MACHINE DATA
Q
